Git is a distributed version control system.
Git is free software.
new line.
1
2
